OPT_V10/Two_days_MYC3/powerflow_results_t28.txt
Pandapower Network Debug Info
==================================================

BUS:
       vm_pu  va_degree      p_mw    q_mvar
0   0.993214   0.119068  0.001068  0.001073
1   0.988980   0.170250  0.001407  0.001925
2   0.985167   0.205099  0.002265  0.002421
3   0.989692   0.222995  0.001950  0.004191
4   0.999886   0.000676  0.008850  0.008806
5   0.999872   0.000711  0.012312  0.010510
6   0.999862   0.000735  0.012122  0.010303
7   0.999930   0.000513  0.000000  0.000000
8   0.999930   0.000519  0.000000  0.000000
9   1.000000   0.000000 -0.040111 -0.044319
10  1.000000   0.000006  0.000000  0.000000
--------------------------------------------------

LINE:
   p_from_mw  q_from_mvar   p_to_mw  q_to_mvar         pl_mw       ql_mvar  i_from_ka   i_to_ka      i_ka  vm_from_pu  va_from_degree  vm_to_pu  va_to_degree  loading_percent
0   0.040101     0.040319 -0.040097  -0.040316  3.162951e-06  2.466205e-06   0.002189  0.002189  0.002189    1.000000        0.000006  0.999930      0.000513         0.951629
1   0.033287     0.029620 -0.033285  -0.029619  1.535455e-06  1.197220e-06   0.001715  0.001715  0.001715    0.999930        0.000513  0.999886      0.000676         0.745710
2   0.006801     0.009696 -0.006735  -0.009645  6.561557e-05  5.116154e-05   0.017096  0.017096  0.017096    0.999930        0.000519  0.993214      0.119068         7.432959
3  -0.024434    -0.020813  0.024435   0.020813  3.563638e-07  2.778628e-07   0.001236  0.001236  0.001236    0.999872        0.000711  0.999886      0.000676         0.537206
4  -0.012122    -0.010303  0.012122   0.010303  1.238150e-07  9.654061e-08   0.000612  0.000612  0.000612    0.999862        0.000735  0.999872      0.000711         0.266270
5  -0.003682    -0.004354  0.003702   0.004369  1.966857e-05  1.533590e-05   0.008322  0.008322  0.008322    0.988980        0.170250  0.993214      0.119068         3.618384
6  -0.001950    -0.004191  0.001965   0.004203  1.456786e-05  1.135880e-05   0.006742  0.006742  0.006742    0.989692        0.222995  0.993214      0.119068         2.931324
7  -0.002265    -0.002421  0.002276   0.002429  1.024723e-05  7.989932e-06   0.004858  0.004858  0.004858    0.985167        0.205099  0.988980      0.170250         2.112165
--------------------------------------------------

TRAFO:
    p_hv_mw  q_hv_mvar   p_lv_mw  q_lv_mvar    pl_mw  ql_mvar   i_hv_ka   i_lv_ka  vm_hv_pu  va_hv_degree  vm_lv_pu  va_lv_degree  loading_percent
0  0.006811   0.010696 -0.006801  -0.009696  0.00001    0.001  0.000488  0.017096   0.99993      0.000513   0.99993      0.000519         0.126813
1  0.040111   0.044319 -0.040101  -0.040319  0.00001    0.004  0.000493  0.002189   1.00000      0.000000   1.00000      0.000006         0.149437
--------------------------------------------------
